etc/on-the-fly/02 30-Bus/30Bus.m
% Case saved by PowerWorld Simulator, version 23, build date May 7, 2024
% Case Information Header = 1 lines
%  08/20/93 UW ARCHIVE           100.0  1961 W IEEE 30 Bus Test Case
function mpc = IEEE 30 bus
mpc.version = '2';
mpc.baseMVA =  100.00;

%% bus data 
mpc.bus = [
1	3	0.00	0.00	0.00	0.00	1	1.0599999	98.431595	132.00	1	1.100	0.900
2	2	21.70	12.70	0.00	0.00	1	1.0431345	93.079797	132.00	1	1.100	0.900
3	1	2.40	1.20	0.00	0.00	1	1.0207417	90.899616	132.00	1	1.100	0.900
4	1	7.60	1.60	0.00	0.00	1	1.0117647	89.147505	132.00	1	1.100	0.900
5	2	94.20	19.00	0.00	0.00	1	1.0100000	84.265841	132.00	1	1.100	0.900
6	1	0.00	0.00	0.00	0.00	1	1.0102573	87.367000	132.00	1	1.100	0.900
7	1	22.80	10.90	0.00	0.00	1	1.0023772	85.566495	132.00	1	1.100	0.900
8	2	30.00	30.00	0.00	0.00	1	1.0100000	86.618306	132.00	1	1.100	0.900
9	1	0.00	0.00	0.00	0.00	1	1.0509123	84.322685	1.00	1	1.100	0.900
10	1	5.80	2.00	0.00	19.00	1	1.0451273	82.731963	33.00	1	1.100	0.900
11	2	0.00	0.00	0.00	0.00	1	1.0820000	84.322687	11.00	1	1.100	0.900
12	1	11.20	7.50	0.00	0.00	1	1.0571196	83.488307	33.00	1	1.100	0.900
13	2	0.00	0.00	0.00	0.00	1	1.0710000	83.488309	11.00	1	1.100	0.900
14	1	6.20	1.60	0.00	0.00	1	1.0422808	82.596167	33.00	1	1.100	0.900
15	1	8.20	2.50	0.00	0.00	1	1.0376827	82.504235	33.00	1	1.100	0.900
16	1	3.50	1.80	0.00	0.00	1	1.0443903	82.905277	33.00	1	1.100	0.900
17	1	9.00	5.80	0.00	0.00	1	1.0399026	82.570243	33.00	1	1.100	0.900
18	1	3.20	0.90	0.00	0.00	1	1.0281536	81.889924	33.00	1	1.100	0.900
19	1	9.50	3.40	0.00	0.00	1	1.0256524	81.716188	33.00	1	1.100	0.900
20	1	2.20	0.70	0.00	0.00	1	1.0297380	81.912749	33.00	1	1.100	0.900
21	1	17.50	11.20	0.00	0.00	1	1.0327267	82.289250	33.00	1	1.100	0.900
22	1	0.00	0.00	0.00	0.00	1	1.0332580	82.303486	33.00	1	1.100	0.900
23	1	3.20	1.60	0.00	0.00	1	1.0271824	82.113548	33.00	1	1.100	0.900
24	1	8.70	6.70	0.00	4.30	1	1.0215836	81.936967	33.00	1	1.100	0.900
25	1	0.00	0.00	0.00	0.00	1	1.0173382	82.364837	33.00	1	1.100	0.900
26	1	3.50	2.30	0.00	0.00	1	0.9996609	81.945180	33.00	1	1.100	0.900
27	1	0.00	0.00	0.00	0.00	1	1.0232493	82.889224	33.00	1	1.100	0.900
28	1	0.00	0.00	0.00	0.00	1	1.0068172	86.743211	132.00	1	1.100	0.900
29	1	2.40	0.90	0.00	0.00	1	1.0034104	81.659282	33.00	1	1.100	0.900
30	1	10.60	1.90	0.00	0.00	1	0.9919358	80.776457	33.00	1	1.100	0.900
];

%% generator data 
mpc.gen = [
1	260.95	-16.79	0.00	0.00	1.0600	100.00	1	10000.00	-10000.00	0.00	0.00	0.00	0.00	0.00	0.00	0	0	0	0	0.0000
2	40.00	50.00	50.00	-40.00	1.0450	100.00	1	40.00	40.00	0.00	0.00	0.00	0.00	0.00	0.00	0	0	0	0	0.0000
5	0.00	36.85	40.00	-40.00	1.0100	100.00	1	0.00	0.00	0.00	0.00	0.00	0.00	0.00	0.00	0	0	0	0	0.0000
8	0.00	37.14	40.00	-10.00	1.0100	100.00	1	0.00	0.00	0.00	0.00	0.00	0.00	0.00	0.00	0	0	0	0	0.0000
11	0.00	16.17	24.00	-6.00	1.0820	100.00	1	0.00	0.00	0.00	0.00	0.00	0.00	0.00	0.00	0	0	0	0	0.0000
13	0.00	10.62	24.00	-6.00	1.0710	100.00	1	0.00	0.00	0.00	0.00	0.00	0.00	0.00	0.00	0	0	0	0	0.0000
];

%% generator cost data
mpc.gencost = [
2	0	0	4	0	0	1	0
2	0	0	4	0	0	1	0
2	0	0	4	0	0	1	0
2	0	0	4	0	0	1	0
2	0	0	4	0	0	1	0
2	0	0	4	0	0	1	0
];

%% branch data
mpc.branch = [
1	2	0.019200	0.057500	0.05280	130.00	0.00	0.00	0.00000	0.000	1	0.00	0.00	173.23	-21.33	-168.04	31.02
1	3	0.045200	0.165200	0.04080	130.00	0.00	0.00	0.00000	0.000	1	0.00	0.00	87.72	4.55	-84.61	2.42
2	4	0.057000	0.173700	0.03680	65.00	0.00	0.00	0.00000	0.000	1	0.00	0.00	43.62	3.95	-42.61	-4.74
2	5	0.047200	0.198300	0.04180	130.00	0.00	0.00	0.00000	0.000	1	0.00	0.00	82.38	1.82	-79.43	6.17
2	6	0.058100	0.176300	0.03740	65.00	0.00	0.00	0.00000	0.000	1	0.00	0.00	60.34	0.50	-58.39	1.46
3	4	0.013200	0.037900	0.00840	130.00	0.00	0.00	0.00000	0.000	1	0.00	0.00	82.21	-3.62	-81.35	5.21
4	6	0.011900	0.041400	0.00900	90.00	0.00	0.00	0.00000	0.000	1	0.00	0.00	72.15	-16.32	-71.52	17.61
4	12	0.000000	0.256000	0.00000	65.00	0.00	0.00	0.93200	0.000	1	0.00	0.00	44.21	14.26	-44.21	-9.57
5	7	0.046000	0.116000	0.02040	70.00	0.00	0.00	0.00000	0.000	1	0.00	0.00	-14.77	11.68	14.94	-13.31
6	7	0.026700	0.082000	0.01700	130.00	0.00	0.00	0.00000	0.000	1	0.00	0.00	38.12	-2.96	-37.74	2.41
6	8	0.012000	0.042000	0.00900	32.00	0.00	0.00	0.00000	0.000	1	0.00	0.00	29.57	-8.08	-29.46	7.55
6	9	0.000000	0.208000	0.00000	65.00	0.00	0.00	0.97800	0.000	1	0.00	0.00	27.72	-8.17	-27.72	9.80
6	10	0.000000	0.556000	0.00000	32.00	0.00	0.00	0.96900	0.000	1	0.00	0.00	15.84	0.16	-15.84	1.12
6	28	0.016900	0.059900	0.01300	0.00	0.00	0.00	0.00000	0.000	1	0.00	0.00	18.67	-0.03	-18.61	-1.09
8	28	0.063600	0.200000	0.04280	0.00	0.00	0.00	0.00000	0.000	1	0.00	0.00	-0.54	-0.40	0.54	-3.94
9	10	0.000000	0.110000	0.00000	0.00	0.00	0.00	0.00000	0.000	1	0.00	0.00	27.72	5.91	-27.72	-5.11
9	11	0.000000	0.208000	0.00000	65.00	0.00	0.00	0.00000	0.000	1	0.00	0.00	-0.00	-15.71	0.00	16.17
10	17	0.032400	0.084500	0.00000	0.00	0.00	0.00	0.00000	0.000	1	0.00	0.00	5.33	4.42	-5.31	-4.39
10	20	0.093600	0.209000	0.00000	32.00	0.00	0.00	0.00000	0.000	1	0.00	0.00	9.02	3.71	-8.94	-3.53
10	21	0.034800	0.074900	0.00000	0.00	0.00	0.00	0.00000	0.000	1	0.00	0.00	15.79	10.01	-15.67	-9.77
10	22	0.072700	0.149900	0.00000	0.00	0.00	0.00	0.00000	0.000	1	0.00	0.00	7.62	4.60	-7.57	-4.49
12	13	0.000000	0.140000	0.00000	65.00	0.00	0.00	0.00000	0.000	1	0.00	0.00	-0.00	-10.48	0.00	10.62
12	14	0.123100	0.255900	0.00000	0.00	0.00	0.00	0.00000	0.000	1	0.00	0.00	7.86	2.40	-7.78	-2.25
12	15	0.066200	0.130400	0.00000	32.00	0.00	0.00	0.00000	0.000	1	0.00	0.00	17.90	6.80	-17.68	-6.37
12	16	0.094500	0.198700	0.00000	16.00	0.00	0.00	0.00000	0.000	1	0.00	0.00	7.25	3.35	-7.19	-3.24
14	15	0.221000	0.199700	0.00000	16.00	0.00	0.00	0.00000	0.000	1	0.00	0.00	1.58	0.65	-1.58	-0.64
15	18	0.107300	0.218500	0.00000	16.00	0.00	0.00	0.00000	0.000	1	0.00	0.00	6.02	1.60	-5.98	-1.52
15	23	0.100000	0.202000	0.00000	0.00	0.00	0.00	0.00000	0.000	1	0.00	0.00	5.04	2.91	-5.01	-2.85
16	17	0.052400	0.192300	0.00000	16.00	0.00	0.00	0.00000	0.000	1	0.00	0.00	3.69	1.44	-3.69	-1.41
18	19	0.063900	0.129200	0.00000	16.00	0.00	0.00	0.00000	0.000	1	0.00	0.00	2.78	0.62	-2.78	-0.61
19	20	0.034000	0.068000	0.00000	16.00	0.00	0.00	0.00000	0.000	1	0.00	0.00	-6.72	-2.79	6.74	2.83
21	22	0.011600	0.023600	0.00000	0.00	0.00	0.00	0.00000	0.000	1	0.00	0.00	-1.83	-1.43	1.83	1.43
22	24	0.115000	0.179000	0.00000	0.00	0.00	0.00	0.00000	0.000	1	0.00	0.00	5.74	3.06	-5.69	-2.99
23	24	0.132000	0.270000	0.00000	0.00	0.00	0.00	0.00000	0.000	1	0.00	0.00	1.81	1.25	-1.80	-1.24
24	25	0.188500	0.329200	0.00000	0.00	0.00	0.00	0.00000	0.000	1	0.00	0.00	-1.20	2.02	1.21	-2.00
25	26	0.254400	0.380000	0.00000	0.00	0.00	0.00	0.00000	0.000	1	0.00	0.00	3.54	2.37	-3.50	-2.30
25	27	0.109300	0.208700	0.00000	0.00	0.00	0.00	0.00000	0.000	1	0.00	0.00	-4.76	-0.37	4.78	0.41
28	27	0.000000	0.396000	0.00000	0.00	0.00	0.00	0.96800	0.000	1	0.00	0.00	18.06	5.03	-18.06	-3.75
27	29	0.219800	0.415300	0.00000	0.00	0.00	0.00	0.00000	0.000	1	0.00	0.00	6.19	1.67	-6.10	-1.51
27	30	0.320200	0.602700	0.00000	0.00	0.00	0.00	0.00000	0.000	1	0.00	0.00	7.09	1.66	-6.93	-1.36
29	30	0.239900	0.453300	0.00000	0.00	0.00	0.00	0.00000	0.000	1	0.00	0.00	3.70	0.61	-3.67	-0.54
];

%% bus names
mpc.bus_name = {
'Glen Lyn';
'Claytor';
'Kumis';
'Hancock';
'Fieldale';
'Roanoke';
'Blaine';
'Reusens';
'Roanoke';
'Roanoke';
'Roanoke';
'Hancock';
'Hancock';
'Bus 14';
'Bus 15';
'Bus 16';
'Bus 17';
'Bus 18';
'Bus 19';
'Bus 20';
'Bus 21';
'Bus 22';
'Bus 23';
'Bus 24';
'Bus 25';
'Bus 26';
'Cloverdl';
'Cloverdl';
'Bus 29';
'Bus 30';
};

%% Generator Unit Types
mpc.gentype = {
'UN';
'UN';
'UN';
'UN';
'UN';
'UN';
};

%% Generator Fuel Types
mpc.genfuel = {
'unknown';
'unknown';
'unknown';
'unknown';
'unknown';
'unknown';
};
